<?xml version="1.0" encoding="UTF-8"?>
<gtr:projectOverview xmlns:gtr="http://gtr.rcuk.ac.uk/api"><gtr:projectComposition><gtr:collaborations/><gtr:leadResearchOrganisation url="http://gtr.rcuk.ac.uk:80/organisation/68D0E3C9-9246-4CFC-B5E9-48584CF82993"><gtr:id>68D0E3C9-9246-4CFC-B5E9-48584CF82993</gtr:id><gtr:name>University of Manchester</gtr:name><gtr:department>Mechanical Aerospace and Civil Eng</gtr:department><gtr:address><gtr:line1>Oxford Road</gtr:line1><gtr:city>Manchester</gtr:city><gtr:postCode>M13 9PL</gtr:postCode><gtr:region>North West</gtr:region><gtr:country>United Kingdom</gtr:country></gtr:address><gtr:typeInd>RO</gtr:typeInd></gtr:leadResearchOrganisation><gtr:organisationRoles><gtr:organisationRole url="http://gtr.rcuk.ac.uk:80/organisation/68D0E3C9-9246-4CFC-B5E9-48584CF82993"><gtr:id>68D0E3C9-9246-4CFC-B5E9-48584CF82993</gtr:id><gtr:name>University of Manchester</gtr:name><gtr:address><gtr:line1>Oxford Road</gtr:line1><gtr:city>Manchester</gtr:city><gtr:postCode>M13 9PL</gtr:postCode><gtr:region>North West</gtr:region><gtr:country>United Kingdom</gtr:country></gtr:address><gtr:roles><gtr:role><gtr:name>LEAD_RO</gtr:name></gtr:role></gtr:roles></gtr:organisationRole></gtr:organisationRoles><gtr:personRoles><gtr:personRole url="http://gtr.rcuk.ac.uk:80/person/657FE816-0279-44C6-AE38-AA7296375B10"><gtr:id>657FE816-0279-44C6-AE38-AA7296375B10</gtr:id><gtr:firstName>Benedict</gtr:firstName><gtr:otherNames>David</gtr:otherNames><gtr:surname>Rogers</gtr:surname><gtr:roles><gtr:role><gtr:name>PRINCIPAL_INVESTIGATOR</gtr:name></gtr:role></gtr:roles></gtr:personRole></gtr:personRoles><gtr:project url="http://gtr.rcuk.ac.uk:80/projects?ref=EP%2FM029786%2F1"><gtr:id>0D4CAB65-389F-4B0F-A438-26051619AF09</gtr:id><gtr:title>Newton Fund: Numerical simulation of soil erosion using Smoothed Particle Hydrodynamics (SPH)</gtr:title><gtr:status>Closed</gtr:status><gtr:grantCategory>Research Grant</gtr:grantCategory><gtr:grantReference>EP/M029786/1</gtr:grantReference><gtr:abstractText>The aim of this project is to develop collaborative joint research to study erosion of soils by water, which is a major threat caused by anthropogenic activity in Brasil and elsewhere. This will be achieved by gaining a better understanding on the basic mechanisms of erosion by means of simulating soil erosion with the meshless computational method Smoothed Particle Hydrodynamics (SPH) using the open-source code DualSPHysics.

The DualSphysics code is developed by members of the University of Manchester and the University of Vigo (Spain) as part of EPSRC-funded projects with the purpose of modelling complex hydrodynamic problems. In a recent industrially funded CASE award, the code has been extended by researchers from the University of Manchester to model sediment scouring induced by rapid flows. The multi-phase model is implemented in DualSPHysics using Graphic Processing Units (GPUs) to accelerate the computations with speed-ups of up to 100 enabling industrial use. However, although the model was validated comparing with experimental data for a 3-D dam break over an erodible bed, other numerical simulations need to be run to test other types of soils, conditions and boundary treatments. This will be necessary for the proposed application and will extend both the functionality and provide a robust range of validation cases for future use. 

With exchange visits between the University of Brasilia and the University of Manchester, the 6-month project will explore the potential for modelling soil erosion developing strategies for future development and collaboration. In Manchester, DualSPHysics will be used to examine flows over an erodible bed for different soil properties as well as a range of steady and unsteady flow conditions. Improvements in the experiments will be performed in Brazil. The experimental results will be used to refine the code and to make it capable to model soil erosion in an extended and validated manner with new experiments investigating flume tests under steady flow conditions, sediment recirculation, seepage failure, liquefaction and excavation by a water jet.</gtr:abstractText><gtr:potentialImpactText>COPIED FROM &amp;quot;ODA RELEVANCE&amp;quot; already successfully approved by EPSRC for CONFAP-Newton:

Soil erosion is a key issue in the food-energy-water environment nexus in Brazil. The accelerated development of agriculture and pasture, together with poor soil management leads to decreased water infiltration and siltation. Surface erosion is a direct consequence of the flow of water that does not infiltrate. Soil erosion leads to degradation of native vegetation and crops. This has become a cycle that is a major hazard to environmental equilibrium in many Brazilian ecosystems. Seepage and siltation also affect reservoirs of water and hydroelectric powers plants which, placed at the course of the biggest rivers,are the main source of the Brazilian energy matrix. 
Understanding the erosion mechanism and being capable of simulating different scenarios in the context of erosion will help to better manage territorial distribution of crops in order to develop sustainable agriculture. It will also help assessing internal erosion which is responsible for the failure of many dams.</gtr:potentialImpactText><gtr:fund><gtr:end>2016-03-31</gtr:end><gtr:funder url="http://gtr.rcuk.ac.uk:80/organisation/798CB33D-C79E-4578-83F2-72606407192C"><gtr:id>798CB33D-C79E-4578-83F2-72606407192C</gtr:id><gtr:name>EPSRC</gtr:name></gtr:funder><gtr:start>2015-01-01</gtr:start><gtr:type>INCOME_ACTUAL</gtr:type><gtr:valuePounds>4677</gtr:valuePounds></gtr:fund><gtr:output><gtr:artisticAndCreativeProductOutputs/><gtr:collaborationOutputs/><gtr:disseminationOutputs><gtr:disseminationOutput><gtr:description>Paper &amp; Presentation at 11th International SPHERIC Workshop on SPH</gtr:description><gtr:form>A talk or presentation</gtr:form><gtr:geographicReach>International</gtr:geographicReach><gtr:id>3FAC9F86-06E2-4954-BB6D-86511370FFEB</gtr:id><gtr:impact>Modelling sediment erosion in fluvial channels using SPH
Zubeldia, E.; Fourtakas, G.; Rogers, B.; Farias, M., Proc. 11th SPHERIC Workshop on SPH, 345-352</gtr:impact><gtr:partOfOfficialScheme>false</gtr:partOfOfficialScheme><gtr:primaryAudience>Postgraduate students</gtr:primaryAudience><gtr:year>2016</gtr:year></gtr:disseminationOutput></gtr:disseminationOutputs><gtr:exploitationOutputs/><gtr:furtherFundingOutputs/><gtr:impactSummaryOutputs/><gtr:intellectualPropertyOutputs/><gtr:keyFindingsOutput><gtr:description>A new model to account for erosion using a threshold-based criterion has increased the applicablity of the model to a greater range of sediment types and flow situations.</gtr:description><gtr:exploitationPathways>See paper: &amp;quot;Modelling sediment erosion in fluvial channels using SPH&amp;quot; Zubeldia, E.; Fourtakas, G.; Rogers, B.; Farias, M., Proc. 11th SPHERIC Workshop on SPH, 345-352</gtr:exploitationPathways><gtr:id>38F457B5-0A85-40D8-984F-2FF19680CB8D</gtr:id><gtr:sectors><gtr:sector>Agriculture, Food and Drink,Environment</gtr:sector></gtr:sectors><gtr:url>http://spheric-sph.org</gtr:url></gtr:keyFindingsOutput><gtr:otherResearchOutputs/><gtr:policyInfluenceOutputs/><gtr:productOutputs/><gtr:researchDatabaseAndModelOutputs/><gtr:researchMaterialOutputs/><gtr:softwareAndTechnicalProductOutputs/><gtr:spinOutOutputs/></gtr:output><gtr:publications/><gtr:identifiers><gtr:identifier type="RCUK">EP/M029786/1</gtr:identifier></gtr:identifiers><gtr:healthCategories/><gtr:researchActivities/><gtr:researchSubjects><gtr:researchSubject><gtr:id>895D1683-DC4B-4292-BBC6-EC38672BFD10</gtr:id><gtr:percentage>0</gtr:percentage><gtr:text>RCUK Programmes</gtr:text></gtr:researchSubject><gtr:researchSubject><gtr:id>825466D8-66F3-4ABB-A62C-357225C4B154</gtr:id><gtr:percentage>20</gtr:percentage><gtr:text>Terrest. &amp; freshwater environ.</gtr:text></gtr:researchSubject></gtr:researchSubjects><gtr:researchTopics><gtr:researchTopic><gtr:id>96F70ACB-D35F-416F-9360-4EFD402DFA6B</gtr:id><gtr:percentage>20</gtr:percentage><gtr:text>Soil science</gtr:text></gtr:researchTopic></gtr:researchTopics><gtr:rcukProgrammes><gtr:rcukProgramme><gtr:id>C11BDEA9-7D9D-4728-B6A9-31032921B328</gtr:id><gtr:percentage>0</gtr:percentage><gtr:text>Newton</gtr:text></gtr:rcukProgramme></gtr:rcukProgrammes></gtr:project></gtr:projectComposition></gtr:projectOverview>